# generated using pymatgen
data_ScGaAu2
_symmetry_space_group_name_H-M   'P 1'
_cell_length_a   10.56703878
_cell_length_b   3.40758612
_cell_length_c   7.30926080
_cell_angle_alpha   90.00000000
_cell_angle_beta   115.89654308
_cell_angle_gamma   90.00000000
_symmetry_Int_Tables_number   1
_chemical_formula_structural   ScGaAu2
_chemical_formula_sum   'Sc1 Ga1 Au2'
_cell_volume   236.76384598
_cell_formula_units_Z   1
loop_
 _symmetry_equiv_pos_site_id
 _symmetry_equiv_pos_as_xyz
  1  'x, y, z'
loop_
 _atom_site_type_symbol
 _atom_site_label
 _atom_site_symmetry_multiplicity
 _atom_site_fract_x
 _atom_site_fract_y
 _atom_site_fract_z
 _atom_site_occupancy
  Sc  Sc0  1  0.00000000  0.00000000  0.00000000  1
  Ga  Ga1  1  0.00000000  0.00000000  0.50000000  1
  Au  Au2  1  0.34635160  0.00000000  0.85199092  1
  Au  Au3  1  0.65686750  0.00000000  0.67257715  1
