# generated using pymatgen
data_KSBr3
_symmetry_space_group_name_H-M   'P 1'
_cell_length_a   14.67488927
_cell_length_b   11.61723037
_cell_length_c   6.56499340
_cell_angle_alpha   90.00000000
_cell_angle_beta   100.15255889
_cell_angle_gamma   90.00000000
_symmetry_Int_Tables_number   1
_chemical_formula_structural   KSBr3
_chemical_formula_sum   'K1 S1 Br3'
_cell_volume   1101.68566523
_cell_formula_units_Z   1
loop_
 _symmetry_equiv_pos_site_id
 _symmetry_equiv_pos_as_xyz
  1  'x, y, z'
loop_
 _atom_site_type_symbol
 _atom_site_label
 _atom_site_symmetry_multiplicity
 _atom_site_fract_x
 _atom_site_fract_y
 _atom_site_fract_z
 _atom_site_occupancy
  S  S0  1  0.00000000  0.00000000  0.00000000  1
  Br  Br1  1  0.19391195  0.00000000  0.26050855  1
  K  K2  1  0.41041706  0.00000000  0.56897895  1
  Br  Br3  1  0.62172488  0.00000000  0.80888286  1
  Br  Br4  1  0.41826496  0.69076040  0.20826088  1
