# generated using pymatgen
data_AcCe(InTe)2
_symmetry_space_group_name_H-M   'P 1'
_cell_length_a   8.16290220
_cell_length_b   14.03898760
_cell_length_c   8.64767530
_cell_angle_alpha   90.00000000
_cell_angle_beta   108.30659804
_cell_angle_gamma   90.00000000
_symmetry_Int_Tables_number   1
_chemical_formula_structural   AcCe(InTe)2
_chemical_formula_sum   'Ac1 Ce1 In2 Te2'
_cell_volume   940.85803233
_cell_formula_units_Z   1
loop_
 _symmetry_equiv_pos_site_id
 _symmetry_equiv_pos_as_xyz
  1  'x, y, z'
loop_
 _atom_site_type_symbol
 _atom_site_label
 _atom_site_symmetry_multiplicity
 _atom_site_fract_x
 _atom_site_fract_y
 _atom_site_fract_z
 _atom_site_occupancy
  Ce  Ce0  1  0.00000000  0.00000000  0.00000000  1
  In  In1  1  0.00000000  0.50000000  0.50000000  1
  Ac  Ac2  1  0.00000000  0.66647178  0.00000000  1
  In  In3  1  0.00000000  0.83039487  0.50000000  1
  Te  Te4  1  0.75615597  0.00000000  0.23671008  1
  Te  Te5  1  0.76246657  0.83828768  0.77175202  1
